CM Testcube - V0 mesh
GW 1 1 0.000000 0.000000 0.500000 0.000000 0.000000 0.830000 0.002000
GW 1 1 0.000000 0.500000 0.000000 0.000000 0.830000 0.000000 0.002000
GW 1 1 0.000000 0.000000 0.830000 0.000000 0.000000 1.165000 0.002000
GW 1 1 0.000000 0.000000 1.165000 0.000000 0.000000 1.500000 0.002000
GW 1 1 0.000000 0.830000 0.000000 0.000000 1.165000 0.000000 0.002000
GW 1 1 0.000000 1.165000 0.000000 0.000000 1.500000 0.000000 0.002000
SP 0 2 -0.500000 -0.500000 -0.500000 0.000000 0.000000 -0.500000
SC 0 0 0.500000 -0.500000 -0.500000
SP 0 2 -0.500000 0.500000 -0.500000 0.000000 0.000000 -0.500000
SC 0 0 -0.500000 -0.500000 -0.500000
SP 0 2 0.500000 0.500000 -0.500000 0.000000 0.000000 -0.500000
SC 0 0 -0.500000 0.500000 -0.500000
SP 0 2 0.500000 -0.500000 -0.500000 0.000000 0.000000 -0.500000
SC 0 0 0.500000 0.500000 -0.500000
SP 0 2 0.500000 -0.500000 -0.500000 0.500000 0.000000 0.000000
SC 0 0 0.500000 -0.500000 0.500000
SP 0 2 0.500000 0.000000 0.000000 0.500000 -0.500000 -0.500000
SC 0 0 0.500000 0.500000 -0.500000
SP 0 2 0.500000 0.000000 0.000000 0.500000 0.500000 -0.500000
SC 0 0 0.500000 0.500000 0.500000
SP 0 2 0.500000 0.000000 0.000000 0.500000 0.500000 0.500000
SC 0 0 0.500000 -0.500000 0.500000
SP 0 2 0.000000 -0.500000 0.000000 -0.500000 -0.500000 -0.500000
SC 0 0 0.500000 -0.500000 -0.500000
SP 0 2 0.000000 -0.500000 0.000000 0.500000 -0.500000 -0.500000
SC 0 0 0.500000 -0.500000 0.500000
SP 0 2 0.000000 -0.500000 0.000000 0.500000 -0.500000 0.500000
SC 0 0 -0.500000 -0.500000 0.500000
SP 0 2 -0.500000 -0.500000 -0.500000 0.000000 -0.500000 0.000000
SC 0 0 -0.500000 -0.500000 0.500000
SP 0 2 -0.500000 0.000000 0.000000 -0.500000 0.500000 -0.500000
SC 0 0 -0.500000 -0.500000 -0.500000
SP 0 2 -0.500000 0.000000 0.000000 -0.500000 -0.500000 -0.500000
SC 0 0 -0.500000 -0.500000 0.500000
SP 0 2 -0.500000 0.000000 0.000000 -0.500000 -0.500000 0.500000
SC 0 0 -0.500000 0.500000 0.500000
SP 0 2 -0.500000 0.500000 -0.500000 -0.500000 0.000000 0.000000
SC 0 0 -0.500000 0.500000 0.500000
SP 0 0 -0.333333 0.000000 -0.333333 -0.000000 -90.000000 1.000000
SP 0 0 0.666667 0.000000 0.000000 90.000000 0.000000 1.000000
GE 0 0
FR 0 1 0 0 1000000.000000 0
EX 0 0 3 0 1.000000e-006 0 0
EX 0 0 5 0 1 0 0
XQ 0
EN