CM
CM Hello nec
CM
CE
GW 1 11 0.0 -0.5 0.5 0.0 -0.5 1.5 0.005
GW 1 11 0.0  0.0 0.5 0.0  0.0 1.5 0.005
GW 1 11 0.0  0.5 0.5 0.0  0.5 1.5 0.005
GE 1
GN 2 0 0 0 4.0 .003
FR 0 1 0 0 300 5
EX 0 1 1 00 1.0 0.0
EX 0 1 1 00 1.0 0.0
EX 0 1 1 00 1.0 0.0
RP 0 1 361 1000 90 0 1 1
EN