CEEXAMPLE 1.  CENTER FED LINEAR ANTENNA
GW  0    7   0.        0.        -.25      0.        0.        .25       .001
GE
EX  0    0    4    0    1.
XQ
LD  0    0    4    4   10.     3.000E-09 5.300E-11
PQ
NE  0    1    1   15   0.        0.        0.        0.        0.        .01786
NE  0    1    1   15   .001      0.        0.        0.        0.        .01786
NX
CMEXAMPLE 2.  CENTER FED LINEAR ANTENNA.
CM            CURRENT SLOPE DISCONTINUITY SOURCE.
CM            1. THIN PERFECTLY CONDUCTING WIRE
CE            2. THIN ALUMINUM WIRE
GW  0    8   0.        0.        -.25      0.        0.        .25       .00001
GE
FR  0    3    0    0   200.      50.
EX  5    0    5    1   1.        0.        50.
XQ
LD  5    0    0    0 3.720E+07
FR  0    1    0    0   300.
EX  5    0    5    0   1.
XQ
NX
CMEXAMPLE 3.  VERTICAL HALF WAVELENGTH ANTENNA OVER GROUND
CM            1. PERFECT GROUND
CM            2. IMPERFECT GROUND INCLUDING GROUND WAVE AND RECEIVING
CE               PATTERN CALCULATIONS
GW  0    9   0.        0.        2.        0.        0.        7.        .3
GE  1
FR  0    1    0    0   30.
EX  0    0    5    0   1.
GN  1
RP  0   10    2 1301   0.        0.        10.       90.
GN  0    0    0    0   6.      1.000E-03
RP  0   10    2 1301   0.        0.        10.       90.
RP  1   10    1    0   1.        0.        2.        0.      1.000E+05
EX  1   10    1    0   0.        0.        0.        10.
PT  2    0    5    5
XQ
NX
CEEXAMPLE 4.  T ANTENNA ON A BOX OVER PERFECT GROUND
SP  0    0   .1        .05       .05       0.        0.        .01
SP  0    0   .05       .1        .05       0.        90.       .01
GX  0  110
SP  0    0   0.        0.        .1        90.       0.        .04
GW  1    4   0.        0.        .1        0.        0.        .3        .001
GW  2    2   0.        0.        .3        .15       0.        .3        .001
GW  3    2   0.        0.        .3        -.15      0.        .3        .001
GE  1
GN  1
EX  0    1    1    0   1.
RP  0   10    4 1001   0.        0.        10.       30.
NX
CM 12 ELEMENT LOG PERIODIC ANTENNA IN FREE SPACE.
CM   78 SEGMENTS.     SIGMA=D/L       RECEIVING AND TRANS. PATTERNS.
CM DIPOLE LENGTH TO DIAMETER RATIO=150.
CE TAU=0.93,    SIGMA=0.70,     BOOM IMPEDANCE=50. OHMS.
GW  1    5   0.        -1.       0.        0.        1.        0.       0.00667
GW  2    5   -.7527    -1.0753   0.        -.7527    1.0753    0.        .00717
GW  3    5   -1.562    -1.1562   0.        -1.562    1.1562    0.        .00771
GW  4    5   -2.4323   -1.2432   0.        -2.4323   1.2432    0.        .00829
GW  5    5   -3.368    -1.3368   0.        -3.368    1.3368    0.        .00891
GW  6    7   -4.3742   -1.4374   0.        -4.3742   1.4374    0.        .00958
GW  7    7   -5.4562   -1.5456   0.        -5.4562   1.5456    0.        .0103
GW  8    7   -6.6195   -1.6619   0.        -6.6195   1.6619    0.        .01108
GW  9    7   -7.8705   -1.787    0.        -7.8705   1.787     0.        .01191
GW 10    7   -9.2156   -1.9215   0.        -9.2156   1.9215    0.        .01281
GW 11    9  -10.6619   -2.0662   0.       -10.6619   2.0662    0.        .01377
GW 12    9  -12.2171   -2.2217   0.       -12.2171   2.2217    0.        .01481
GE
FR  0    0    0    0   46.29
TL  1    3    2    3   -50.
TL  2    3    3    3   -50.
TL  3    3    4    3   -50.
TL  4    3    5    3   -50.
TL  5    3    6    4   -50.
TL  6    4    7    4   -50.
TL  7    4    8    4   -50.
TL  8    4    9    4   -50.
TL  9    4   10    4   -50.
TL 10    4   11    5   -50.
TL 11    5   12    5   -50.      0.         0.       0.          .02
EX  0    1    3   10   1.
RP  0   37    1 1110   90.       0.        -5.       0.
NX
CECYLINDER WITH ATTACHED WIRES.
SP  0    0   10.       0.        7.3333    0.        0.        38.4
SP  0    0   10.       0.        0.        0.        0.        38.4
SP  0    0   10.       0.       -7.3333    0.        0.        38.4
GM  0    1   0.        0.        30.
SP  0    0   6.89      0.        11.       90.       0.        44.88
SP  0    0   6.89      0.        -11.      -90.      0.        44.88
GR  0    6
SP  0    0   0.        0.        11.       90.       0.        44.89
SP  0    0   0.        0.        -11.      -90.      0.        44.89
GW  1    4   0.        0.        11.       0.        0.        23.       .1
GW  2    5   10.       0.        0.        27.6      0.        0.        .2
GS  0    0   .01
GE
FR  0    1    0    0   465.84
CP  1    1    2    1
EX  0    1    1    0   1.
RP  0   73    1 1000   0.        0.        5.        0.
EX  0    2    1    0   1.
XQ
NX
CMSAMPLE PROBLEMS FOR NEC -  SCATTERING BY A WIRE.
CM    1. STRAIGHT WIRE - FREE SPACE
CM    2. STRAIGHT WIRE - PERFECT GROUND
CM    3. STRAIGHT WIRE - FINITELY CONDUCTING GROUND
CE                       (SIG.=1.E-4 MHOS/M., EPS.=6.)
GW  0   15   -55.      0.        10.       55.       0.        10.       .01
GE  1
FR  0    1    0    0   3.
EX  1    2    1    0   0.        0.        0.        45.       0.
RP  0    2    1 1000   0.        0.        45.       0.
GN  1
EX  1    1    1    0   45.       0.        0.
RP  0   19    1 1000   90.       0.        -10.      0.
GN  0    0    0    0   6.      1.000E-04
RP  0   19    1 1000   90.       0.        -10.      0.
NX
CMSAMPLE PROBLEM FOR NEC
CESTICK MODEL OF AIRCRAFT - FREE SPACE
GW  1    1   0.        0.        0.        6.        0.        0.        1.
GW  2    6   6.        0.        0.        44.       0.        0.        1.
GW  3    4   44.       0.        0.        68.       0.        0.        1.
GW  4    6   44.       0.        0.        24.       29.9      0.        1.
GW  5    6   44.       0.        0.        24.      -29.9      0.        1.
GW  6    2   6.        0.        0.        2.        11.3      0.        1.
GW  7    2   6.        0.        0.        2.       -11.3      0.        1.
GW  8    2   6.        0.        0.        2.        0.        10.       1.
GE
FR  0    1    0    0   3.
EX  1    1    1    0   0.        0.        0.
RP  0    1    1 1000   0.        0.        0.
EX  1    1    1    0   90.       30.       -90.
RP  0    1    1 1000   90.       30.
NX
CMBISTATIC SCATTERING BY A SPHERE.
CMPATCH DATA ARE INPUT FOR A SPHERE OF 1. M. RADIUS
CMTHE SPHERE IS THEN SCALED SO THAT KA=FREQUENCY IN MHZ.
CMTHE PATCH MODEL MAY BE USED FOR KA LESS THAN ABOUT 3.
CEFOR THIS RUN  *** KA=2.9 ***
SP  0    0   .13795    .13795    .98079    78.75     45.       .11957
SP  0    0   .51328    .21261    .83147    56.25     22.5      .17025
SP  0    0   .21261    .51328    .83147    56.25     67.5      .17025
SP  0    0   .80314    .21520    .55557    33.75     15.       .16987
SP  0    0   .58794    .58794    .55557    33.75     45.       .16987
SP  0    0   .21520    .80314    .55557    33.75     75.       .16987
SP  0    0   .96194    .19134    .19509    11.25     11.25     .15028
SP  0    0   .81549    .54490    .19509    11.25     33.75     .15028
SP  0    0   .54490    .81549    .19509    11.25     56.25     .15028
SP  0    0   .19134    .96194    .19509    11.25     78.75     .15028
GX  0  111
GS  0    0 47.71465
GE
FR  0    1    0    0   2.9
EX  1    1    1    0   90.       0.        0.
RP  0   19    1 1000   90.       0.        -10.      0.
RP  0    1   19 1000   90.       0.        0.        10.
NE  0    1    1   11   0.        0.        0.        0.        0.        5.
NE  0    1   11    1   0.        0.        0.        0.        5.        0.
NE  0   11    1    1   0.        0.        0.        5.        0.        0.
NH  0    1    1   11   0.        0.        0.        0.        0.        5.
NH  0    1   11    1   0.        0.        0.        0.        5.        0.
NH  0   11    1    1   0.        0.        0.        5.        0.        0.
NX
CM Horizontal 16 m dipole
CM 1. Dipole in free space
CM 2. Dipole above ground - Ground: E = 10.,  SIG = 0.01 S/M,  5 MHz
CE    Sommerfeld gound option
GW  1   11   -8.   0.   0.01     8.     0.    0.01     .001
GE -1
FR  0    1    0    0    5.
EX  0    1    6    0    1.
RP  0   10    2   1000  0.   0.   10.   90.
RP  0   10   10   1002  0.   0.   10.   10.
GN  2    0    0    0    10.   0.01  SOMEX10.NEC
RP  0   10    2   1000  0.   0.   10.   90.
RP  0   10   10   1002  0.   0.   10.   10.
NX
CM Horizontal 16 m dipole
CM 1. Dipole in an infinite lossy medium
CM 2. Dipole below the ground surface
CE    Sommerfeld gound option -  E = 10.,  SIG = 0.01 S/M,  5 MHz
GW  1   11   -8.   0.  -0.01     8.     0.   -0.01     .001
GE -1
FR  0    1    0    0    5.
EX  0    1    6    0    1.
UM  0    0    0    0    10.   0.01
RP  0   10    2   1000  0.   0.   10.   90.
RP  0   10   10   1002  0.   0.   10.   10.
CM NOTE: The above calculation of average gain in a lossy medium cannot
CM       be interpreted in the usual sense.  A factor of EXP(-jkR)/R
CM       has been omitted from the field so that a non-zero value can
CM       be obtained for R --> infinity with complex k.  However, by the
CM       usual definition, the far-field gain is zero in a lossy medium.
UM   ! Set upper medium to free space, then use Sommerfeld ground.
GN  2    0    0    0    10.   0.01  SOMEX10.NEC
RP  0   10    2   1000  0.   0.   10.   90.
RP  0   10   10   1002  0.   0.   10.   10.
NX
CM TWO HORIZONTAL 16 M DIPOLE ANTENNAS ABOVE AND BELOW GROUND
CE SOMMERFELD GOUND OPTION -  E = 10.,  SIG = 0.01 S/M,  5 MHz
GW  1   11   -8.   0.   0.01     8.     0.    0.01     .001
GW  2   11   -8.   0.  -0.01     8.     0.   -0.01     .001
GE -1
FR  0    1    0    0    5.
EX  0    1    6    0    1.
EX  0    2    6    0    1.
GN  2    0    0    0    10.   0.01  SOMEX10.NEC
RP  0   10    2   1000  0.   0.   10.   90.
RP  0   10   10   1002  0.   0.   10.   10.
NX
CM 15 m monopole antenna on a ground stake 2 m deep.
CE Ground: E = 10.,  SIG = 0.01 S/m,   5 MHz.
GW  1    8    0.   0.   -2.   0.   0.   0.   0.01
GW  2   10    0.   0.    0.   0.   0.  15.   0.01
GE -1
FR  0    1    0    0    5.
GN  2    0    0    0    10.   0.01  SOMEX10.NEC
EX  0    2    1    0    1.
RP  0   19    2   1002  0.    0.   5.   90.
NE  0    1    1    21  5000.  0.   0.1   0.    0.    10.
NH  0    1    1    21  5000.  0.   0.1   0.    0.    10.
NX
CM 6-Wire Radial-Wire Ground Screen. 
CE An NGF file is written to take advantage of symmetry of the screen.
GW  1  14  12.   0.   -.05   0.8   0.  -.05   .01
GW  1   1  0.8   0.   -.05    0.   0.    0.   .01
GR  0   6
GE
FR   0   1   0   0   5.
GN   2   0   0   0   10.   .01  SOMEX10.NEC
WG
NX
CE 15 m Monopole added to the ground screen from the NGF file.
GF
GW   2   10   0.   0.    0.    0.   0.   15.   .01
GE
EX   0    2   1    0     1.
RP   0   19   2   1001   0.    0.   5.   90.
EN
