CM GA - NEC FILE
CE go blue ! 
GW 0 42 0 0 0 -0.043 -0.024 0.021 0.001
GW 0 59 0.025 0.007 0.036 -0.006 -0.034 -0.017 0.001
GW 0 64 0.001 -0.043 -0.04 -0.011 -0.049 0.04 0.001
GE 0
GN -1
LD 5 0 0 0 3.720E+07 
FR 0 1 0 0 2400
PT -1
EX 1 1 1 0 90 22.5 0 0 0 0 0
RP 0 1 1 0500 90 157.5 0 0
EN
